LTspice 24.0.9 for Windows
Circuit: * C:\Users\lukas\Desktop\Podstawy Elektroniki\LTSpice\1b.asc
Start Time: Fri Apr  5 22:59:26 2024
solver = Normal
Maximum thread count: 16
tnom = 27
temp = 27
method = modified trap
Total elapsed time: 0.160 seconds.

