LTspice 24.0.9 for Windows
Circuit: * C:\Users\lukas\Desktop\Podstawy Elektroniki\LTSpice\2b.asc
Start Time: Fri Apr  5 23:03:31 2024
solver = Normal
Maximum thread count: 16
tnom = 27
temp = 27
method = modified trap
.OP point found by inspection.

period: time=0.000160363 at 0.000160363

Total elapsed time: 0.236 seconds.

