LTspice 24.0.9 for Windows
Circuit: * C:\Users\lukas\Desktop\Podstawy Elektroniki\LTSpice\2c1.asc
Start Time: Fri Apr  5 18:30:45 2024
solver = Normal
Maximum thread count: 16
tnom = 27
temp = 27
method = modified trap
Direct Newton iteration for .op point succeeded.

period: time=0.159579 at 0.159579

Total elapsed time: 0.042 seconds.

