LTspice 24.0.9 for Windows
Circuit: * C:\Users\lukas\Desktop\Podstawy Elektroniki\LTSpice\2c2.asc
Start Time: Thu Apr  4 23:04:56 2024
solver = Normal
Maximum thread count: 16
tnom = 27
temp = 27
method = modified trap
Limiting rise time of source v1 to 0.0159579
Limiting fall time of source v1 to 0.0159579
.OP point found by inspection.

period=0.159561 FROM 0.00799678 TO 0.167558

Total elapsed time: 0.223 seconds.

