LTspice 24.0.9 for Windows
Circuit: * C:\Users\lukas\Desktop\Podstawy Elektroniki\LTSpice\3b.asc
Start Time: Fri Apr  5 19:10:00 2024
solver = Normal
Maximum thread count: 16
tnom = 27
temp = 27
method = modified trap
.OP point found by inspection.
Total elapsed time: 0.048 seconds.

