LTspice 24.0.9 for Windows
Circuit: * C:\Users\lukas\Desktop\Podstawy Elektroniki\LTSpice\Draft1.asc
Start Time: Fri Apr  5 08:54:39 2024
solver = Normal
Maximum thread count: 16
tnom = 27
temp = 27
method = modified trap
Direct Newton iteration for .op point succeeded.
Total elapsed time: 0.040 seconds.

